Version 4
SHEET 1 3076 864
WIRE -688 -880 -768 -880
WIRE -640 -880 -688 -880
WIRE -288 -880 -560 -880
WIRE 752 -880 -288 -880
WIRE 864 -880 752 -880
WIRE 1360 -880 864 -880
WIRE 1520 -880 1360 -880
WIRE -768 -864 -768 -880
WIRE 1360 -848 1360 -880
WIRE 752 -528 752 -880
WIRE 688 -480 -80 -480
WIRE 864 -448 864 -880
WIRE 752 -400 752 -432
WIRE 800 -400 752 -400
WIRE -288 -368 -288 -880
WIRE 1520 -352 1520 -880
WIRE -688 -304 -688 -880
WIRE -464 -288 -496 -288
WIRE -496 -272 -496 -288
WIRE -464 -272 -464 -288
WIRE -288 -272 -288 -288
WIRE -16 -272 -288 -272
WIRE -288 -256 -288 -272
WIRE -16 -256 -16 -272
WIRE -80 -192 -80 -480
WIRE -80 -192 -176 -192
WIRE -688 -176 -688 -224
WIRE -464 -176 -464 -208
WIRE -288 -160 -288 -176
WIRE -288 -160 -352 -160
WIRE -176 -160 -176 -192
WIRE -176 -160 -288 -160
WIRE -80 -160 -80 -192
WIRE 752 -144 752 -400
WIRE 864 -144 864 -352
WIRE -144 -112 -160 -112
WIRE -272 -80 -352 -80
WIRE -160 -80 -160 -112
WIRE -160 -80 -192 -80
WIRE -688 -32 -688 -96
WIRE -688 -32 -768 -32
WIRE -464 -32 -464 -96
WIRE -432 -32 -464 -32
WIRE -336 -32 -352 -32
WIRE -16 -32 -16 -192
WIRE -16 -32 -336 -32
WIRE 752 -32 752 -64
WIRE 752 -32 -16 -32
WIRE 864 -32 864 -64
WIRE 864 -32 752 -32
WIRE 1120 -32 864 -32
WIRE 1360 -32 1120 -32
WIRE -160 -16 -160 -80
WIRE -160 -16 -288 -16
WIRE 1360 -16 1360 -32
WIRE -768 0 -768 -32
WIRE 864 0 864 -32
WIRE -464 16 -464 -32
WIRE -432 16 -464 16
WIRE -336 16 -336 -32
WIRE -336 16 -368 16
WIRE -464 48 -464 16
WIRE -288 80 -288 64
WIRE -768 96 -768 64
WIRE -688 96 -688 -32
WIRE -528 96 -688 96
WIRE -80 144 -80 -64
WIRE -80 144 -208 144
WIRE 864 160 864 80
WIRE 864 160 752 160
WIRE -464 176 -464 144
WIRE -416 176 -464 176
WIRE -288 176 -288 160
WIRE -288 176 -352 176
WIRE -208 176 -208 144
WIRE -208 176 -288 176
WIRE -688 208 -688 96
WIRE -288 208 -288 176
WIRE 752 224 752 160
WIRE -464 256 -464 176
WIRE -352 256 -464 256
WIRE 1520 256 1392 256
WIRE -80 272 -80 144
WIRE 688 272 -80 272
WIRE -464 288 -464 256
WIRE 864 304 864 160
WIRE 1520 304 1520 256
WIRE 752 352 752 320
WIRE 800 352 752 352
WIRE 752 416 752 352
WIRE 1312 544 1280 544
WIRE -112 560 -144 560
WIRE 1280 560 1280 544
WIRE 1312 560 1312 544
WIRE -768 576 -800 576
WIRE -144 576 -144 560
WIRE -112 576 -112 560
WIRE -800 592 -800 576
WIRE -768 592 -768 576
WIRE 1392 624 1392 256
WIRE -768 672 -768 656
WIRE -688 672 -688 288
WIRE -688 672 -768 672
WIRE -608 672 -688 672
WIRE -464 672 -464 368
WIRE -464 672 -528 672
WIRE -288 672 -288 304
WIRE -288 672 -464 672
WIRE -112 672 -112 640
WIRE -112 672 -288 672
WIRE -48 672 -112 672
WIRE 752 672 752 496
WIRE 752 672 32 672
WIRE 864 672 864 400
WIRE 864 672 752 672
WIRE 1312 672 1312 624
WIRE 1312 672 864 672
WIRE 1520 672 1520 384
WIRE 1520 672 1312 672
FLAG -768 -800 0
FLAG -768 176 0
FLAG -496 -272 0
FLAG 1360 -784 0
FLAG 1280 560 0
FLAG 1392 624 0
FLAG -800 592 0
FLAG 1360 64 0
FLAG 1520 -272 0
FLAG -144 576 0
FLAG 1120 -32 vout
DATAFLAG 1344 -32 ""
DATAFLAG 864 -624 "Ic(Q407)"
DATAFLAG 864 240 "Ic(Q408)"
SYMBOL res -704 -320 R0
SYMATTR InstName R5
SYMATTR Value 150k
SYMBOL res -544 -896 R90
WINDOW 0 0 56 VBottom 2
WINDOW 3 32 56 VTop 2
SYMATTR InstName R405
SYMATTR Value 47k
SYMBOL res -704 -192 R0
SYMATTR InstName PS401
SYMATTR Value 55k
SYMBOL cap -752 -800 R180
WINDOW 0 24 56 Left 2
WINDOW 3 24 8 Left 2
SYMATTR InstName C404
SYMATTR Value 22µ
SYMBOL res -704 192 R0
SYMATTR InstName R407
SYMATTR Value 150k
SYMBOL voltage -768 80 R0
SYMATTR InstName VG
SYMATTR Value 0
SYMBOL cap -784 0 R0
SYMATTR InstName C401
SYMATTR Value 2.2µ
SYMBOL pnp -528 144 M180
WINDOW 0 56 28 Left 2
WINDOW 3 57 59 Left 2
SYMATTR InstName Q402
SYMATTR Value BC558B
SYMBOL res -480 -192 R0
SYMATTR InstName R410
SYMATTR Value 120
SYMBOL cap -480 -272 R0
SYMATTR InstName C406
SYMATTR Value 470µ
SYMBOL res -480 272 R0
SYMATTR InstName R408
SYMATTR Value 1.2k
SYMBOL res -448 -16 R270
WINDOW 0 32 56 VTop 2
WINDOW 3 0 56 VBottom 2
SYMATTR InstName R411
SYMATTR Value 3.3k
SYMBOL res -304 -384 R0
SYMATTR InstName R413
SYMATTR Value 1k
SYMBOL res -304 -272 R0
SYMATTR InstName R414
SYMATTR Value 2.2k
SYMBOL res -368 -176 R0
SYMATTR InstName R415
SYMATTR Value 2.2k
SYMBOL res -304 -32 R0
SYMATTR InstName PS402B
SYMATTR Value 1160
SYMBOL res -304 64 R0
SYMATTR InstName R416
SYMATTR Value 1K
SYMBOL npn -352 208 R0
SYMATTR InstName Q404
SYMATTR Value BD135
SYMBOL npn -144 -160 R0
WINDOW 3 32 59 Left 2
SYMATTR Value BC548B
SYMATTR InstName Q403
SYMBOL npn 688 -528 R0
SYMATTR InstName Q405
SYMATTR Value BD135
SYMBOL npn 800 -448 R0
SYMATTR InstName Q407
SYMATTR Value TIP41C
SYMBOL npn 800 304 R0
SYMATTR InstName Q408
SYMATTR Value TIP41C
SYMBOL pnp 688 320 M180
SYMATTR InstName Q406
SYMATTR Value BD136
SYMBOL res 848 -160 R0
SYMATTR InstName R421
SYMATTR Value 0.47
SYMBOL res 736 -160 R0
SYMATTR InstName R419
SYMATTR Value 100
SYMBOL res 736 400 R0
SYMATTR InstName R420
SYMATTR Value 100
SYMBOL res 848 -16 R0
SYMATTR InstName R422
SYMATTR Value 0.47
SYMBOL cap 1344 -848 R0
SYMATTR InstName C413
SYMATTR Value 100n
SYMBOL cap 1296 560 R0
SYMATTR InstName C412
SYMATTR Value 100n
SYMBOL voltage 1520 -368 R0
SYMATTR InstName V1
SYMATTR Value 30
SYMBOL voltage 1520 288 R0
SYMATTR InstName V2
SYMATTR Value 30
SYMBOL res 1344 -32 R0
SYMATTR InstName RL
SYMATTR Value 8
SYMBOL res -64 688 R270
WINDOW 0 32 56 VTop 2
WINDOW 3 0 56 VBottom 2
SYMATTR InstName R418
SYMATTR Value 150
SYMBOL res -624 688 R270
WINDOW 0 32 56 VTop 2
WINDOW 3 0 56 VBottom 2
SYMATTR InstName R10
SYMATTR Value 47k
SYMBOL cap -784 592 R0
SYMATTR InstName C405
SYMATTR Value 22µ
SYMBOL cap -128 576 R0
SYMATTR InstName C407
SYMATTR Value 100µ
SYMBOL cap -32 -256 R0
SYMATTR InstName C408
SYMATTR Value 100µ
SYMBOL cap -368 0 R90
WINDOW 0 62 58 VBottom 2
WINDOW 3 35 -6 VTop 2
SYMATTR InstName C411
SYMATTR Value 220p
SYMBOL cap -352 160 R90
WINDOW 0 0 32 VBottom 2
WINDOW 3 32 32 VTop 2
SYMATTR InstName C409
SYMATTR Value 100p
SYMBOL res -288 -64 R270
WINDOW 0 32 56 VTop 2
WINDOW 3 0 56 VBottom 2
SYMATTR InstName PS402A
SYMATTR Value 1040
TEXT 2024 -784 Left 2 !.include BC558B.lib
TEXT 2024 -816 Left 2 !.include BC548B.lib
TEXT 2024 -688 Left 2 !.include TIP41C.lib
TEXT 2024 -752 Left 2 !.include BD135.lib
TEXT 2024 -720 Left 2 !.include BD136.lib
TEXT 2024 -920 Left 2 !.op
RECTANGLE Normal 2352 -656 2000 -944 1
