.MODEL BC558C PNP (
+     Is=1.02f
+     Xti=3
+     Eg=1.11
+     Vaf=30.52
+     Bf=416.3
+     Ise=14.67f
+     Ne=1.854
+     Ikf=.2088
+     Nk=.8219
+     Xtb=1.5
+     Br=9.102
+     Isc=4.1f
+     Nc=3.982
+     Ikr=19.25m
+     Rc=.9373
+     Cjc=9.81p
+     Mjc=.332
+     Vjc=.4865
+     Fc=.5
+     Cje=30p
+     Mje=.3333
+     Vje=.5
+     Tr=10n
+     Tf=516.2p
+     Itf=1.701
+     Xtf=35.24
+     Vtf=10
+     Vceo=30
+     Icrating=100m
+     mfg=Philips )
