.MODEL DN4007 D (
+IS=5.86E-06
+N=1.70
+BV=1.33E+03
+IBV=5.00E-07
+RS=4.22E-02
+CJO=3.65E-11
+VJ=.2
+M=.333
+TT=7.20E-06 )
