.MODEL DN5822 D (
+IS=218U
+N=1.45
+BV=4.00E+01
+IBV=100E-06
+RS=2.71E-02
+CJO=4.39E-10
+VJ=4.462
+M=.699
+TT=2.16E-11
+XTI=2
+EG=.69 )
