Version 4
SHEET 1 880 680
WIRE 288 16 -240 16
WIRE -240 64 -240 16
WIRE 288 64 288 16
WIRE 288 144 176 144
WIRE 400 144 288 144
WIRE 176 192 176 144
WIRE 400 192 400 144
WIRE 112 240 -32 240
WIRE 592 240 464 240
WIRE -32 304 -32 240
WIRE 592 304 592 240
WIRE 176 432 176 288
WIRE 288 432 176 432
WIRE 400 432 400 288
WIRE 400 432 288 432
WIRE -240 576 -240 144
WIRE -32 576 -32 384
WIRE -32 576 -240 576
WIRE 288 576 288 512
WIRE 288 576 -32 576
WIRE 592 576 592 384
WIRE 592 576 288 576
FLAG 288 576 0
SYMBOL npn 112 192 R0
SYMATTR InstName Q1
SYMATTR Value BC547B
SYMBOL npn 464 192 M0
SYMATTR InstName Q2
SYMATTR Value BC547B
SYMBOL res 272 48 R0
SYMATTR InstName R1
SYMATTR Value 1k
SYMBOL res 272 416 R0
SYMATTR InstName R2
SYMATTR Value 10k
SYMBOL voltage -240 48 R0
SYMATTR InstName V1
SYMATTR Value 5
SYMBOL voltage -32 288 R0
SYMATTR InstName V2
SYMATTR Value PULSE(2 0 .2ns 0.01ns 0.01ns .2ns .4ns 2)
SYMBOL voltage 592 288 R0
SYMATTR InstName V3
SYMATTR Value 2
TEXT 616 32 Left 2 !.tran 0.001ns .8ns
