.MODEL 1N4001 D (
+     IS=1.22478e-08
+     RS=0.0414786
+     N=1.83369
+     EG=0.6
+     XTI=0.05
+     BV=50
+     IBV=5e-08
+     CJO=1e-11
+     VJ=0.7
+     M=0.5
+     FC=0.5
+     TT=1e-09
+     KF=0
+     AF=1 )
