.MODEL 2SA1302 PNP( 
+     IS=21.479E-12
+     BF=136.48
+     VAF=100
+     IKF=19.980
+     ISE=21.504E-12
+     NE=1.3784
+     BR=329.48
+     VAR=100
+     IKR=19.980
+     ISC=4.3670E-9
+     NC=1.4264
+     RC=93.301E-3
+     CJE=755.31E-12
+     MJE=.33333
+     CJC=1.1417E-9
+     MJC=.33333
+     TF=1.2802E-9
+     XTF=10
+     VTF=10
+     ITF=1
+     TR=10.000E-9 )
