.MODEL D1N973 D(
+     Is=31.47f
+     Rs=9.494
+     Ikf=0
+     N=1
+     Xti=3
+     Eg=1.11
+     Cjo=220p
+     M=.5959
+     Vj=.75
+     Fc=.5
+     Isr=2.035n
+     Nr=2
+     Bv=33
+     Ibv=3.862m
+     Nbv=3.0477
+     Ibvl=29.831m
+     Nbvl=11.606
+     Tbv1=-636.4u )
