.MODEL DN4370 D(
+     RS=15.156
+     BV=2.0969     
+     CJO=757.62P
+     TT=50N
+     M=.33
+     VJ=.75
+     IS=1E-11
+     N=1.27
+     IBV=10MA )
