.MODEL MJL21193 PNP (
+     IS=1.6p
+     BF=110
+     VAF=300
+     IKF=4
+     ISE=5p
+     NE=1.5
+     NF=0.95
+     RB=2.0
+     RBM=2
+     IRB=10
+     RC=0.06
+     CJE=13n
+     MJE=0.35
+     VJE=0.5
+      RE=0.001
+     CJC=1.5n
+     MJC=0.5
+     VJC=0.6
+     FC=0.5
+     TF=24n
+     XTF=1.0
+     VTF=10
+     ITF=10
+     TR=100n
+     BR=5
+     VAR=100
+     NR=1.1
+     EG=1.1
+     XCJC=0.96
+     XTB=0.1
+     XTI=1
+     NC=4
+     ISC=0.3p
+     mfg=CA112210 )
