Version 4
SHEET 1 2432 1636
WIRE 640 144 32 144
WIRE 912 144 640 144
WIRE 1152 144 912 144
WIRE 32 160 32 144
WIRE 1152 176 1152 144
WIRE 640 192 640 144
WIRE 912 240 912 224
WIRE 912 240 832 240
WIRE 992 240 912 240
WIRE 32 272 32 240
WIRE 640 288 640 272
WIRE 768 288 640 288
WIRE 1152 288 1152 256
WIRE 1152 288 1056 288
WIRE 640 320 640 288
WIRE 1152 320 1152 288
WIRE 464 368 352 368
WIRE 576 368 544 368
WIRE 1408 368 1296 368
WIRE 352 416 352 368
WIRE 1408 432 1408 368
WIRE 832 480 832 336
WIRE 992 480 992 336
WIRE 992 480 832 480
WIRE 992 624 992 480
WIRE 352 848 352 496
WIRE 640 848 640 416
WIRE 640 848 352 848
WIRE 880 848 640 848
WIRE 992 848 992 704
WIRE 992 848 880 848
WIRE 1152 848 1152 416
WIRE 1152 848 992 848
WIRE 1408 848 1408 512
WIRE 1408 848 1152 848
WIRE 880 896 880 848
WIRE 880 1008 880 976
FLAG 880 1008 0
FLAG 32 272 0
DATAFLAG 720 288 ""
DATAFLAG 832 432 ""
DATAFLAG 992 240 ""
DATAFLAG 1104 288 ""
DATAFLAG 992 496 ""
SYMBOL voltage 352 400 R0
WINDOW 123 0 0 Left 0
WINDOW 39 0 0 Left 0
SYMATTR InstName V3
SYMATTR Value PULSE(2 0 2m 0.01ns 0.01ns .2ns 3m 2)
SYMBOL voltage 1408 416 R0
SYMATTR InstName V4
SYMATTR Value 2
SYMBOL res 624 176 R0
SYMATTR InstName R3
SYMATTR Value 10k
SYMBOL npn 768 240 R0
SYMATTR InstName Q7
SYMATTR Value BC548B
SYMBOL npn 1056 240 M0
SYMATTR InstName Q9
SYMATTR Value BC548B
SYMBOL res 896 128 R0
SYMATTR InstName R4
SYMATTR Value 1k
SYMBOL res 976 608 R0
SYMATTR InstName R5
SYMATTR Value 10k
SYMBOL res 1136 160 R0
SYMATTR InstName R6
SYMATTR Value 10k
SYMBOL pnp 576 416 M180
SYMATTR InstName Q11
SYMATTR Value BC558B
SYMBOL pnp 1216 416 R180
SYMATTR InstName Q10
SYMATTR Value BC558B
SYMBOL res 448 352 M90
WINDOW 0 0 56 VBottom 2
WINDOW 3 32 56 VTop 2
SYMATTR InstName R7
SYMATTR Value 2k
SYMBOL res 1200 352 M90
WINDOW 0 0 56 VBottom 2
WINDOW 3 32 56 VTop 2
SYMATTR InstName R8
SYMATTR Value 2k
SYMBOL voltage 880 880 R0
SYMATTR InstName V2
SYMATTR Value -5
SYMBOL voltage 32 144 R0
SYMATTR InstName V1
SYMATTR Value 10
TEXT 1880 64 Left 2 !.tran 0 10m 0 0.001m
TEXT 1880 120 Left 2 !.include BC548B.lib
TEXT 1880 152 Left 2 !.include BC558B.lib
