Version 4
SHEET 1 1464 852
WIRE 16 -64 -320 -64
WIRE 288 -64 16 -64
WIRE 560 -64 288 -64
WIRE 16 16 16 -64
WIRE 288 16 288 -64
WIRE 560 16 560 -64
WIRE 288 144 288 96
WIRE 288 144 176 144
WIRE 400 144 288 144
WIRE 176 192 176 144
WIRE 400 192 400 144
WIRE 16 240 16 96
WIRE 112 240 16 240
WIRE 560 240 560 96
WIRE 560 240 464 240
WIRE -48 288 -144 288
WIRE 720 288 624 288
WIRE -144 400 -144 288
WIRE 720 400 720 288
WIRE 176 432 176 288
WIRE 288 432 176 432
WIRE 400 432 400 288
WIRE 400 432 288 432
WIRE 288 464 288 432
WIRE 16 592 16 336
WIRE 288 592 288 544
WIRE 288 592 16 592
WIRE 560 592 560 336
WIRE 560 592 288 592
WIRE -320 608 -320 -64
WIRE 288 624 288 592
WIRE -320 752 -320 688
WIRE -144 752 -144 480
WIRE -144 752 -320 752
WIRE 288 752 288 704
WIRE 288 752 -144 752
WIRE 720 752 720 480
WIRE 720 752 288 752
WIRE 288 832 288 752
FLAG 288 832 0
FLAG 288 432 out
SYMBOL npn 112 192 R0
SYMATTR InstName Q7
SYMATTR Value BC548B
SYMBOL npn 464 192 M0
SYMATTR InstName Q9
SYMATTR Value BC548B
SYMBOL res 272 0 R0
SYMATTR InstName R21
SYMATTR Value 1k
SYMBOL res 272 448 R0
SYMATTR InstName R23
SYMATTR Value 10k
SYMBOL voltage -320 592 R0
WINDOW 123 0 0 Left 0
WINDOW 39 0 0 Left 0
SYMATTR InstName Vp
SYMATTR Value 10
SYMBOL voltage -144 384 R0
WINDOW 3 -95 109 Left 2
WINDOW 123 0 0 Left 0
WINDOW 39 0 0 Left 0
SYMATTR Value PULSE(1.6 1 1ms 0 0 1ms 2.2ms 4)
SYMATTR InstName Vi1
SYMBOL voltage 720 384 R0
SYMATTR InstName Vi2
SYMATTR Value 1
SYMBOL pnp 624 336 R180
WINDOW 0 57 30 Left 2
WINDOW 3 50 62 Left 2
SYMATTR InstName Q10
SYMATTR Value BC558B
SYMBOL pnp -48 336 M180
WINDOW 0 54 33 Left 2
WINDOW 3 54 62 Left 2
SYMATTR InstName Q11
SYMATTR Value BC558B
SYMBOL res 0 0 R0
SYMATTR InstName R20
SYMATTR Value 10k
SYMBOL res 544 0 R0
SYMATTR InstName R22
SYMATTR Value 10k
SYMBOL voltage 288 608 R0
SYMATTR InstName Vn
SYMATTR Value -5
TEXT 1240 -176 Left 2 !.tran 0.01ns 8.8ms
TEXT 1240 -88 Left 2 !.include BC548B.lib
TEXT 1240 -128 Left 2 !.include BC558B.lib
