Version 4
SHEET 1 3040 1240
WIRE -1328 -752 -1504 -752
WIRE -1200 -752 -1328 -752
WIRE -1328 -704 -1328 -752
WIRE -1200 -704 -1200 -752
WIRE -1504 -640 -1504 -752
WIRE -1504 -480 -1504 -560
WIRE -1200 -480 -1200 -624
WIRE -1328 -432 -1328 -624
WIRE -1264 -432 -1328 -432
WIRE -1200 -272 -1200 -384
WIRE -976 -272 -1200 -272
WIRE -1200 -256 -1200 -272
WIRE -976 -208 -976 -272
WIRE -1328 -144 -1328 -432
WIRE -1280 -144 -1328 -144
WIRE -1200 -144 -1200 -176
WIRE -1200 -144 -1216 -144
WIRE -1328 -80 -1328 -144
WIRE -1200 -32 -1200 -144
WIRE -1200 -32 -1280 -32
WIRE -1200 -16 -1200 -32
WIRE -976 0 -976 -128
WIRE -1328 80 -1328 16
WIRE -1200 80 -1200 64
WIRE -1200 80 -1328 80
WIRE -1328 128 -1328 80
WIRE -976 128 -976 80
FLAG -976 128 0
FLAG -1328 128 0
FLAG -1504 -480 0
DATAFLAG -1328 -432 ""
DATAFLAG -1200 -544 ""
DATAFLAG -1200 -304 "-Ie(Q14)"
DATAFLAG -1328 -224 "Ix(U2:CATHODE)"
DATAFLAG -1024 -272 ""
DATAFLAG -976 -32 "I(R5)"
SYMBOL voltage -1504 -656 R0
SYMATTR InstName V1
SYMATTR Value 20
SYMBOL res -992 -16 R0
SYMATTR InstName R5
SYMATTR Value 568.22
SYMBOL res -1344 -720 R0
SYMATTR InstName R30
SYMATTR Value 10k
SYMBOL npn -1264 -480 R0
SYMATTR InstName Q14
SYMATTR Value QBD135
SYMBOL res -1216 -272 R0
SYMATTR InstName R31
SYMATTR Value 8.2k
SYMBOL res -1216 -32 R0
SYMATTR InstName R32
SYMATTR Value 2.7k
SYMBOL cap -1216 -160 R90
WINDOW 0 0 32 VBottom 2
WINDOW 3 32 32 VTop 2
SYMATTR InstName C12
SYMATTR Value 100p
SYMBOL TL431 -1328 -32 M0
SYMATTR InstName U2
SYMBOL res -1216 -720 R0
SYMATTR InstName R33
SYMATTR Value 100
SYMBOL voltage -976 -224 R0
WINDOW 123 39 55 Left 2
WINDOW 39 0 0 Left 0
SYMATTR InstName V2
SYMATTR Value ""
SYMATTR Value2 AC 1
TEXT -816 -496 Left 2 !.include BC558B.lib
TEXT -488 -464 Left 2 !.include TL082.lib
TEXT -816 -528 Left 2 !.include BC548B.lib
TEXT -816 -400 Left 2 !.include MJE2955.lib
TEXT -816 -464 Left 2 !.include BD135.lib
TEXT -488 -528 Left 2 !.include 1N4148.lib
TEXT -488 -496 Left 2 !.include TL431.lib
TEXT -816 -432 Left 2 !.include QMJE15032.lib
TEXT -816 -632 Left 2 !.ac dec 1000 0.1 100k
TEXT -232 -688 Left 2 !.param Ccomp=10n
TEXT -232 -656 Left 2 !.param Rcomp=10
TEXT -232 -624 Left 2 !.param Ccomp2=2n
TEXT -232 -592 Left 2 !.param Ccomp3=1n
TEXT -232 -560 Left 2 !.param Ccomp4=10n
TEXT -232 -496 Left 2 !.param Ramort=1
TEXT -232 -464 Left 2 !.param Camort=10u
TEXT -232 -528 Left 2 !.param Rcomp4=1k
RECTANGLE Normal 44 -348 -868 -764 1
