.MODEL 2SC3281 NPN(
+     IS=10.000E-15
+     BF=155.65
+     VAF=100
+     IKF=9.2028
+     XTB=1.5
+     ISE=54.325E-15
+     NE=1.3056
+     BR=10.787
+     VAR=100
+     IKR=1.8561
+     ISC=106.69E-15
+     NC=1.6728
+     RC=26.745E-3
+     CJE=2.0000E-12
+     CJC=534.41E-12
+     MJC=.33333
+     TF=8.0821E-9
+     XTF=3.1968
+     VTF=21.461E-3
+     ITF=169.59
+     TR=187.91E-9 )
