*Typ RED,GREEN,YELLOW,AMBER GaAs LED: Vf=2.1V Vr=4V If=40mA trr=3uS
.MODEL RED_LED D (
+IS=93.1P
+RS=42M
+N=4.61
+BV=4
+IBV=10U
+ CJO=2.97P
+VJ=.75
+M=.333
+TT=4.32U )

.MODEL GREEN_LED D (
+IS=93.1P
+RS=42M
+N=4.61
+BV=4
+IBV=10U
+ CJO=2.97P
+VJ=.75
+M=.333
+TT=4.32U )


.MODEL YELLOW_LED D (
+IS=93.1P
+RS=42M
+N=4.61
+BV=4
+IBV=10U
+ CJO=2.97P
+VJ=.75
+M=.333
+TT=4.32U )


.MODEL AMBER_LED D (
+IS=93.1P
+RS=42M
+N=4.61
+BV=4
+IBV=10U
+ CJO=2.97P
+VJ=.75
+M=.333
+TT=4.32U )


*Typ BLUE SiC LED: Vf=3.4V Vr=5V If=40mA trr=3uS
.MODEL BLUE_LED D (
+IS=93.1P
+RS=42M
+N=7.47
+BV=5
+IBV=30U
+ CJO=2.97P
+VJ=.75
+M=.333
+TT=4.32U ) 

