Version 4
SHEET 1 1656 1292
WIRE -960 -80 -960 -128
WIRE -832 -80 -832 -128
WIRE -704 -80 -704 -128
WIRE -576 -80 -576 -128
WIRE 464 -48 224 -48
WIRE 656 -48 464 -48
WIRE 224 0 224 -48
WIRE -960 64 -960 0
WIRE -832 64 -832 0
WIRE -704 64 -704 0
WIRE -576 64 -576 0
WIRE 464 80 464 -48
WIRE 224 128 224 80
WIRE 288 128 224 128
WIRE 400 128 352 128
WIRE 224 192 224 128
WIRE 464 224 464 176
WIRE 544 224 464 224
WIRE 688 224 608 224
WIRE 464 272 464 224
WIRE -400 320 -464 320
WIRE -352 320 -400 320
WIRE -240 320 -352 320
WIRE -112 320 -240 320
WIRE 224 320 224 256
WIRE 224 320 -112 320
WIRE 400 320 224 320
WIRE -352 368 -352 320
WIRE -464 416 -464 320
WIRE -240 464 -240 320
WIRE 464 480 464 368
WIRE -352 512 -352 448
WIRE -304 512 -352 512
WIRE -112 528 -112 320
WIRE -352 544 -352 512
WIRE -464 592 -464 496
WIRE -416 592 -464 592
WIRE 464 592 464 560
WIRE 1072 592 464 592
WIRE 464 608 464 592
WIRE 1072 624 1072 592
WIRE -464 704 -464 592
WIRE 1072 752 1072 704
WIRE 464 816 464 688
WIRE -528 864 -624 864
WIRE -464 864 -464 784
WIRE -416 864 -464 864
WIRE -352 864 -352 640
WIRE -352 864 -416 864
WIRE -240 864 -240 560
WIRE -240 864 -352 864
WIRE -112 864 -112 592
WIRE -112 864 -240 864
WIRE 224 864 -112 864
WIRE 400 864 224 864
WIRE -624 928 -624 864
WIRE 224 928 224 864
WIRE 464 960 464 912
WIRE 544 960 464 960
WIRE 688 960 608 960
WIRE 464 1008 464 960
WIRE 224 1056 224 992
WIRE 288 1056 224 1056
WIRE 400 1056 352 1056
WIRE -624 1088 -624 1008
WIRE 224 1104 224 1056
WIRE 224 1232 224 1184
WIRE 464 1232 464 1104
WIRE 464 1232 224 1232
WIRE 704 1232 464 1232
FLAG -624 1088 0
FLAG 1072 752 0
FLAG -400 320 VBEM1
FLAG -416 864 VBEM2
FLAG -960 64 0
FLAG -832 64 0
FLAG -960 -128 V_POS_H
FLAG -832 -128 V_POS_L
FLAG 656 -48 V_POS_H
FLAG -704 64 0
FLAG -576 64 0
FLAG -704 -128 V_NEG_H
FLAG -576 -128 V_NEG_L
FLAG 688 224 V_POS_L
FLAG 704 1232 V_NEG_H
FLAG 688 960 V_NEG_L
FLAG 1072 592 out
DATAFLAG 944 592 ""
DATAFLAG 464 432 "Ie(Q1)"
DATAFLAG 464 752 "Ie(Q3)"
DATAFLAG 48 576 "V(vbem1)-V(vbem2)"
DATAFLAG -272 320 ""
DATAFLAG -256 864 ""
DATAFLAG -240 720 "Ie(Q6)"
DATAFLAG 240 128 ""
SYMBOL npn 400 272 R0
SYMATTR InstName Q1
SYMATTR Value TIP41C
SYMBOL npn 400 80 R0
SYMATTR InstName Q2
SYMATTR Value TIP41C
SYMBOL diode 608 208 R90
WINDOW 0 0 32 VBottom 2
WINDOW 3 32 32 VTop 2
SYMATTR InstName D1
SYMATTR Value MBR1645
SYMBOL voltage -624 912 R0
WINDOW 3 -83 233 Left 2
WINDOW 123 32 103 Left 2
WINDOW 39 0 0 Left 0
SYMATTR Value SINE(0 27 50k 0 0 0 0)
SYMATTR Value2 AC 1
SYMATTR InstName VG
SYMBOL res 1056 608 R0
SYMATTR InstName RL
SYMATTR Value 8
SYMBOL current 224 0 R0
SYMATTR InstName I1
SYMATTR Value 200m
SYMBOL diode 288 144 R270
WINDOW 0 32 32 VTop 2
WINDOW 3 0 32 VBottom 2
SYMATTR InstName D4
SYMATTR Value 1N4148
SYMBOL diode 544 944 M90
WINDOW 0 0 32 VBottom 2
WINDOW 3 32 32 VTop 2
SYMATTR InstName D5
SYMATTR Value MBR1645
SYMBOL diode 352 1072 M270
WINDOW 0 32 32 VTop 2
WINDOW 3 0 32 VBottom 2
SYMATTR InstName D8
SYMATTR Value 1N4148
SYMBOL pnp 400 912 M180
SYMATTR InstName Q3
SYMATTR Value TIP42C
SYMBOL pnp 400 1104 M180
SYMATTR InstName Q4
SYMATTR Value TIP42C
SYMBOL cap -464 848 R90
WINDOW 0 0 32 VBottom 2
WINDOW 3 32 32 VTop 2
SYMATTR InstName C1
SYMATTR Value 10µ
SYMBOL res 448 464 R0
SYMATTR InstName R6
SYMATTR Value 0.22
SYMBOL res 448 592 R0
SYMATTR InstName R7
SYMATTR Value 0.22
SYMBOL npn -416 544 R0
SYMATTR InstName Q5
SYMATTR Value BC548B
SYMBOL res -480 400 R0
SYMATTR InstName R2
SYMATTR Value 560
SYMBOL res -480 688 R0
SYMATTR InstName R3
SYMATTR Value 560
SYMBOL current 224 1104 R0
SYMATTR InstName I2
SYMATTR Value 200m
SYMBOL res -368 352 R0
SYMATTR InstName R4
SYMATTR Value 1k
SYMBOL pnp -304 560 M180
SYMATTR InstName Q6
SYMATTR Value BC558B
SYMBOL zener 240 256 R180
WINDOW 0 24 64 Left 2
WINDOW 3 24 0 Left 2
SYMATTR InstName D2
SYMATTR Value D1N4728
SYMBOL zener 240 992 R180
WINDOW 0 24 64 Left 2
WINDOW 3 24 0 Left 2
SYMATTR InstName D3
SYMATTR Value D1N4728
SYMBOL cap -128 528 R0
SYMATTR InstName C2
SYMATTR Value 220p
SYMBOL voltage -960 -96 R0
SYMATTR InstName V1
SYMATTR Value 30
SYMBOL voltage -832 -96 R0
SYMATTR InstName V2
SYMATTR Value 15
SYMBOL voltage -704 -96 R0
SYMATTR InstName V3
SYMATTR Value -30
SYMBOL voltage -576 -96 R0
SYMATTR InstName V4
SYMATTR Value -15
TEXT 840 -104 Left 2 !.tran 0 4m 0
TEXT 840 -72 Left 2 ;.ac dec 1000 .001 1000000000k
TEXT 1416 -272 Left 2 !.include TIP41C.lib
TEXT 1416 -232 Left 2 !.include TIP42C.lib
TEXT 1416 -192 Left 2 !.include BC548B.lib
TEXT 1416 -112 Left 2 !.include MBR1645.lib
TEXT 1416 -152 Left 2 !.include BC558B.lib
TEXT 1416 -72 Left 2 !.include D1N4728.lib
