.MODEL MBR1645 D (
+     IS=3.47597e-05
+     RS=0.00960369
+     N=1.28962
+     EG=0.428428
+     XTI=5
+     BV=45
+     IBV=0.0002
+     CJO=1e-11
+     VJ=0.7
+     M=0.5
+     FC=0.5
+     TT=0
+     KF=0
+     AF=1 )
* Model generated on October 8, 2003
* Model format: SPICE3
