Version 4
SHEET 1 4212 2620
WIRE -1888 -1568 -2000 -1568
WIRE -1776 -1568 -1888 -1568
WIRE -1648 -1568 -1776 -1568
WIRE -1888 -1552 -1888 -1568
WIRE -1776 -1552 -1776 -1568
WIRE -1888 -1472 -1888 -1488
WIRE -1776 -1472 -1776 -1488
WIRE 1824 -1472 1824 -1712
WIRE 1952 -1472 1952 -1712
WIRE 2112 -1472 2112 -1712
WIRE 2240 -1472 2240 -1712
WIRE -784 -1344 -2160 -1344
WIRE -640 -1344 -784 -1344
WIRE -304 -1344 -640 -1344
WIRE -128 -1344 -304 -1344
WIRE -96 -1344 -128 -1344
WIRE -32 -1344 -96 -1344
WIRE 80 -1344 -32 -1344
WIRE 224 -1344 160 -1344
WIRE 272 -1344 224 -1344
WIRE 352 -1344 272 -1344
WIRE 480 -1344 352 -1344
WIRE 1152 -1344 480 -1344
WIRE 1264 -1344 1152 -1344
WIRE 1392 -1344 1264 -1344
WIRE 1824 -1344 1824 -1392
WIRE 1952 -1344 1952 -1392
WIRE 2112 -1344 2112 -1392
WIRE 2240 -1344 2240 -1392
WIRE 2656 -1344 2656 -1696
WIRE 2800 -1344 2800 -1696
WIRE 1152 -1328 1152 -1344
WIRE 1264 -1328 1264 -1344
WIRE -2160 -1312 -2160 -1344
WIRE -128 -1312 -128 -1344
WIRE -32 -1312 -32 -1344
WIRE -784 -1264 -784 -1344
WIRE -640 -1264 -640 -1344
WIRE 1152 -1248 1152 -1264
WIRE 1264 -1248 1264 -1264
WIRE -128 -1232 -128 -1248
WIRE -32 -1232 -32 -1248
WIRE -2160 -1200 -2160 -1232
WIRE -1472 -1200 -2160 -1200
WIRE 1824 -1200 1824 -1264
WIRE 1952 -1200 1952 -1264
WIRE 2112 -1200 2112 -1264
WIRE 2240 -1200 2240 -1264
WIRE 2656 -1200 2656 -1264
WIRE 2800 -1200 2800 -1264
WIRE -304 -1184 -304 -1344
WIRE -784 -1168 -784 -1200
WIRE -640 -1152 -640 -1184
WIRE -2160 -1136 -2160 -1200
WIRE -640 -1104 -640 -1152
WIRE -2000 -1088 -2000 -1568
WIRE -2000 -1088 -2096 -1088
WIRE -1872 -1088 -2000 -1088
WIRE -784 -1056 -784 -1104
WIRE -704 -1056 -784 -1056
WIRE -784 -1008 -784 -1056
WIRE -304 -1008 -304 -1104
WIRE -2160 -992 -2160 -1040
WIRE -304 -976 -304 -1008
WIRE -1472 -960 -1472 -1200
WIRE -640 -928 -640 -1008
WIRE -368 -928 -640 -928
WIRE -2160 -912 -2160 -992
WIRE -1872 -912 -1872 -1088
WIRE -784 -896 -784 -928
WIRE 224 -896 224 -1344
WIRE -2224 -864 -2288 -864
WIRE -1744 -864 -1808 -864
WIRE -304 -864 -304 -880
WIRE -640 -848 -640 -928
WIRE -2160 -784 -2160 -816
WIRE -2016 -784 -2160 -784
WIRE -1872 -784 -1872 -816
WIRE -1872 -784 -2016 -784
WIRE 352 -736 352 -1344
WIRE -640 -720 -640 -784
WIRE -2144 -704 -2208 -704
WIRE -640 -704 -640 -720
WIRE 480 -704 480 -1344
WIRE 624 -704 480 -704
WIRE -304 -688 -304 -864
WIRE -304 -688 -480 -688
WIRE -64 -688 -304 -688
WIRE 224 -688 224 -832
WIRE 224 -688 0 -688
WIRE 288 -688 224 -688
WIRE -2208 -656 -2208 -704
WIRE -1472 -656 -1472 -960
WIRE -768 -656 -1472 -656
WIRE -704 -656 -768 -656
WIRE -2144 -624 -2144 -704
WIRE 352 -624 352 -640
WIRE 480 -624 480 -704
WIRE 624 -624 624 -704
WIRE 352 -592 352 -624
WIRE 432 -592 352 -592
WIRE 576 -592 432 -592
WIRE -304 -576 -304 -688
WIRE 352 -576 352 -592
WIRE -2016 -560 -2016 -784
WIRE -640 -544 -640 -608
WIRE 480 -544 480 -560
WIRE 624 -544 624 -560
WIRE -2016 -512 -2016 -560
WIRE -2144 -464 -2144 -544
WIRE -2080 -464 -2144 -464
WIRE -768 -448 -768 -656
WIRE -672 -448 -768 -448
WIRE -480 -448 -480 -688
WIRE -480 -448 -608 -448
WIRE 352 -448 352 -496
WIRE 480 -448 480 -464
WIRE 480 -448 352 -448
WIRE 624 -448 624 -464
WIRE 624 -448 480 -448
WIRE 752 -448 624 -448
WIRE 784 -448 784 -464
WIRE 784 -448 752 -448
WIRE 816 -448 784 -448
WIRE 1152 -448 880 -448
WIRE 1264 -448 1152 -448
WIRE 1392 -448 1264 -448
WIRE 1152 -432 1152 -448
WIRE 1264 -432 1264 -448
WIRE -2144 -416 -2144 -464
WIRE 272 -416 272 -1344
WIRE 272 -416 240 -416
WIRE -2144 -384 -2144 -416
WIRE -2016 -384 -2016 -416
WIRE -768 -368 -976 -368
WIRE -608 -368 -768 -368
WIRE -304 -368 -304 -512
WIRE -304 -368 -608 -368
WIRE -272 -368 -304 -368
WIRE 128 -368 -192 -368
WIRE 144 -368 128 -368
WIRE 176 -368 144 -368
WIRE -2016 -352 -2016 -384
WIRE 1152 -352 1152 -368
WIRE 1264 -352 1264 -368
WIRE -768 -304 -768 -368
WIRE 624 -304 624 -448
WIRE -2144 -272 -2144 -320
WIRE 240 -272 240 -320
WIRE 240 -272 -96 -272
WIRE 272 -272 240 -272
WIRE 400 -272 272 -272
WIRE 576 -272 400 -272
WIRE -2144 -240 -2144 -272
WIRE -608 -208 -608 -368
WIRE 128 -208 128 -368
WIRE 352 -192 352 -448
WIRE 352 -192 272 -192
WIRE 400 -192 400 -272
WIRE -768 -160 -768 -224
WIRE -672 -160 -768 -160
WIRE 624 -160 624 -240
WIRE 272 -144 272 -192
WIRE 128 -112 128 -144
WIRE -2144 -96 -2144 -176
WIRE -2080 -96 -2144 -96
WIRE -2016 -96 -2016 -272
WIRE -2016 -96 -2080 -96
WIRE 128 -80 128 -112
WIRE -2080 -64 -2080 -96
WIRE 272 -32 272 -64
WIRE 272 -32 192 -32
WIRE 448 -32 272 -32
WIRE 624 -32 624 -160
WIRE 624 -32 528 -32
WIRE 624 16 624 -32
WIRE -1440 32 -1488 32
WIRE -1328 32 -1376 32
WIRE -768 48 -768 -160
WIRE -816 80 -832 80
WIRE -976 96 -976 -368
WIRE -96 96 -96 -272
WIRE -2640 128 -2912 128
WIRE -2432 128 -2432 48
WIRE -2432 128 -2576 128
WIRE -2288 128 -2288 -864
WIRE -2288 128 -2432 128
WIRE -1744 128 -1744 -864
WIRE -1600 128 -1600 48
WIRE -1600 128 -1744 128
WIRE -1488 128 -1488 32
WIRE -1488 128 -1600 128
WIRE -1440 128 -1488 128
WIRE -1328 128 -1328 32
WIRE -1328 128 -1360 128
WIRE -1168 128 -1328 128
WIRE 128 128 128 16
WIRE 128 128 96 128
WIRE 624 128 624 96
WIRE 624 128 128 128
WIRE 1600 128 624 128
WIRE 1616 128 1600 128
WIRE -832 160 -832 80
WIRE -768 160 -768 128
WIRE -768 160 -832 160
WIRE 624 160 624 128
WIRE -2912 192 -2912 128
WIRE -608 192 -608 -112
WIRE -2432 224 -2432 128
WIRE -1600 224 -1600 128
WIRE 1616 224 1616 128
WIRE 128 240 128 128
WIRE 272 288 192 288
WIRE 432 288 272 288
WIRE 624 288 624 240
WIRE 624 288 512 288
WIRE -2080 320 -2080 272
WIRE -2080 320 -2144 320
WIRE -2016 320 -2080 320
WIRE 272 320 272 288
WIRE -1600 352 -1600 304
WIRE -1472 352 -1600 352
WIRE -1344 352 -1472 352
WIRE -608 368 -608 192
WIRE 128 368 128 336
WIRE 400 368 400 -112
WIRE -2144 384 -2144 320
WIRE -1472 384 -1472 352
WIRE -1344 384 -1344 352
WIRE 128 400 128 368
WIRE 1616 400 1616 304
WIRE -2912 416 -2912 272
WIRE -2432 416 -2432 304
WIRE -768 416 -768 160
WIRE -672 416 -768 416
WIRE -2016 432 -2016 320
WIRE -1600 432 -1600 352
WIRE 272 448 272 400
WIRE 352 448 272 448
WIRE 624 448 624 288
WIRE -2144 480 -2144 448
WIRE -1472 480 -1472 448
WIRE -1344 480 -1344 448
WIRE -768 480 -768 416
WIRE 624 496 624 448
WIRE -2144 512 -2144 480
WIRE -96 528 -96 160
WIRE 240 528 -96 528
WIRE 400 528 400 448
WIRE 400 528 240 528
WIRE 576 528 400 528
WIRE -2016 544 -2016 512
WIRE -1600 576 -1600 496
WIRE -1472 576 -1472 544
WIRE -1472 576 -1600 576
WIRE -1344 576 -1344 544
WIRE -1344 576 -1472 576
WIRE 240 576 240 528
WIRE -2016 592 -2016 544
WIRE -1600 624 -1600 576
WIRE -976 624 -976 160
WIRE -768 624 -768 560
WIRE -768 624 -976 624
WIRE -608 624 -608 464
WIRE -608 624 -768 624
WIRE -304 624 -608 624
WIRE -272 624 -304 624
WIRE 128 624 128 464
WIRE 128 624 -192 624
WIRE 144 624 128 624
WIRE 176 624 144 624
WIRE -2144 640 -2144 576
WIRE -2096 640 -2144 640
WIRE -2080 640 -2096 640
WIRE -2144 672 -2144 640
WIRE 272 672 240 672
WIRE -688 704 -784 704
WIRE -496 704 -624 704
WIRE 352 704 352 448
WIRE 480 704 352 704
WIRE 624 704 624 560
WIRE 624 704 480 704
WIRE 752 704 624 704
WIRE 832 704 752 704
WIRE 1184 704 896 704
WIRE 1296 704 1184 704
WIRE 1392 704 1296 704
WIRE -2016 720 -2016 688
WIRE 1184 720 1184 704
WIRE 1296 720 1296 704
WIRE 352 736 352 704
WIRE 480 736 480 704
WIRE 624 736 624 704
WIRE -304 752 -304 624
WIRE -576 768 -656 768
WIRE 1184 800 1184 784
WIRE 1296 800 1296 784
WIRE -576 816 -576 768
WIRE -2144 832 -2144 752
WIRE -656 832 -656 768
WIRE 480 848 480 816
WIRE 624 848 624 816
WIRE -784 880 -784 704
WIRE -784 880 -1472 880
WIRE -720 880 -784 880
WIRE 352 880 352 816
WIRE 432 880 352 880
WIRE 576 880 432 880
WIRE 352 896 352 880
WIRE 352 912 352 896
WIRE -656 960 -656 928
WIRE -496 960 -496 704
WIRE -304 960 -304 816
WIRE -304 960 -496 960
WIRE -64 960 -304 960
WIRE 224 960 0 960
WIRE 288 960 224 960
WIRE -2016 1008 -2016 720
WIRE -2016 1008 -2160 1008
WIRE -1872 1008 -2016 1008
WIRE 480 1008 480 912
WIRE 624 1008 624 912
WIRE 624 1008 480 1008
WIRE -656 1024 -656 960
WIRE -304 1056 -304 960
WIRE 224 1056 224 960
WIRE -2160 1072 -2160 1008
WIRE -1872 1072 -1872 1008
WIRE -800 1104 -880 1104
WIRE -304 1104 -304 1056
WIRE -2288 1120 -2288 128
WIRE -2224 1120 -2288 1120
WIRE -1744 1120 -1744 128
WIRE -1744 1120 -1808 1120
WIRE -800 1152 -800 1104
WIRE -656 1152 -656 1088
WIRE -368 1152 -656 1152
WIRE -880 1184 -880 1104
WIRE -2160 1232 -2160 1168
WIRE -656 1232 -656 1152
WIRE -304 1264 -304 1200
WIRE -800 1280 -800 1232
WIRE -720 1280 -800 1280
WIRE -2160 1296 -2160 1232
WIRE -304 1328 -304 1264
WIRE -2000 1344 -2096 1344
WIRE -1872 1344 -1872 1168
WIRE -1872 1344 -2000 1344
WIRE -800 1360 -800 1280
WIRE -656 1360 -656 1328
WIRE -656 1408 -656 1360
WIRE -2160 1456 -2160 1392
WIRE -1472 1456 -1472 880
WIRE -1472 1456 -2160 1456
WIRE -800 1456 -800 1424
WIRE -2160 1488 -2160 1456
WIRE -2160 1600 -2160 1568
WIRE -800 1600 -800 1520
WIRE -800 1600 -2160 1600
WIRE -656 1600 -656 1488
WIRE -656 1600 -800 1600
WIRE -304 1600 -304 1408
WIRE -304 1600 -656 1600
WIRE -128 1600 -304 1600
WIRE -96 1600 -128 1600
WIRE -48 1600 -96 1600
WIRE 64 1600 -48 1600
WIRE 224 1600 224 1120
WIRE 224 1600 144 1600
WIRE 272 1600 272 672
WIRE 272 1600 224 1600
WIRE 352 1600 352 1008
WIRE 352 1600 272 1600
WIRE 480 1600 480 1008
WIRE 480 1600 352 1600
WIRE 1184 1600 480 1600
WIRE 1296 1600 1184 1600
WIRE 1392 1600 1296 1600
WIRE 1184 1616 1184 1600
WIRE 1296 1616 1296 1600
WIRE -128 1632 -128 1600
WIRE -48 1632 -48 1600
WIRE 1184 1696 1184 1680
WIRE 1296 1696 1296 1680
WIRE -128 1712 -128 1696
WIRE -48 1712 -48 1696
WIRE -2000 1760 -2000 1344
WIRE -1584 1760 -2000 1760
WIRE -1472 1760 -1584 1760
WIRE -1344 1760 -1472 1760
WIRE -1584 1776 -1584 1760
WIRE -1472 1776 -1472 1760
WIRE -1584 1856 -1584 1840
WIRE -1472 1856 -1472 1840
FLAG -608 -368 VBEM1
FLAG -608 624 VBEM2
FLAG 752 704 MID_NEG
FLAG 752 -448 MID_POS
FLAG -2432 416 0
FLAG -1600 624 0
FLAG -1648 -1568 +RLV
IOPIN -1648 -1568 BiDir
FLAG -1344 1760 -RLV
IOPIN -1344 1760 BiDir
FLAG -2080 -64 -RLV
IOPIN -2080 -64 BiDir
FLAG -2080 272 +RLV
IOPIN -2080 272 BiDir
FLAG 1392 1600 -HV
IOPIN 1392 1600 BiDir
FLAG 1392 704 -LV
IOPIN 1392 704 BiDir
FLAG 1392 -1344 +HV
IOPIN 1392 -1344 BiDir
FLAG 1392 -448 +LV
IOPIN 1392 -448 BiDir
FLAG 1616 400 0
FLAG 1600 128 out
FLAG -1168 128 feedback
IOPIN -1168 128 In
FLAG 96 128 feedback
IOPIN 96 128 Out
FLAG -2912 416 0
FLAG -2912 128 in
FLAG 1264 -1248 0
FLAG -640 -544 0
FLAG -576 816 0
FLAG -2144 832 0
FLAG -2208 -656 0
FLAG -1472 -960 POS_DIFF_OUT
FLAG -1472 880 NEG_DIFF_OUT
FLAG 1152 -1248 0
FLAG 1264 -352 0
FLAG 1152 -352 0
FLAG 1296 800 0
FLAG 1184 800 0
FLAG 1296 1696 0
FLAG 1184 1696 0
FLAG -1776 -1472 0
FLAG -1888 -1472 0
FLAG -1472 1856 0
FLAG -1584 1856 0
FLAG 1824 -1200 0
FLAG 1952 -1200 0
FLAG 2112 -1200 0
FLAG 2240 -1200 0
FLAG 1824 -1712 +HV
IOPIN 1824 -1712 BiDir
FLAG 1952 -1712 +LV
IOPIN 1952 -1712 BiDir
FLAG 2112 -1712 -HV
IOPIN 2112 -1712 BiDir
FLAG 2240 -1712 -LV
IOPIN 2240 -1712 BiDir
FLAG 2656 -1200 0
FLAG 2656 -1696 +RLV
IOPIN 2656 -1696 BiDir
FLAG 2800 -1200 0
FLAG 2800 -1696 -RLV
IOPIN 2800 -1696 BiDir
FLAG -2016 -560 CQ37
FLAG -2016 -384 EQ37
FLAG -2016 720 CQ38
FLAG -2016 544 EQ38
FLAG -2144 -272 CD35
FLAG -2144 -416 AD35
FLAG -2144 480 CD36
FLAG -2096 640 BQ36
FLAG -304 1264 EQ16
FLAG -656 960 EQ20
FLAG -304 1056 CQ16
FLAG -640 -720 EQ19
FLAG -304 -864 CQ15
FLAG -304 -1008 EQ15
FLAG 272 -272 EQ9
FLAG 624 448 EQ4
FLAG 624 -160 EQ3
FLAG 240 528 EQ10
FLAG 144 624 BQ10
FLAG 144 -368 BQ9
FLAG 480 816 EQ6
FLAG 624 816 EQ2
FLAG 624 -544 EQ1
FLAG 480 -544 EQ5
FLAG 352 -624 EQ7
FLAG 352 896 EQ8
FLAG 128 -112 CQ11
FLAG 128 368 CQ12
FLAG -2432 48 din
IOPIN -2432 48 BiDir
FLAG -1600 48 fin
IOPIN -1600 48 BiDir
FLAG -608 192 VBEMID
FLAG -2160 1232 CQ36
FLAG -2160 -992 CQ35
FLAG -656 1152 CQ18
FLAG -640 -928 CQ17
FLAG -784 -896 0
FLAG -880 1184 0
FLAG -656 1360 EQ18
FLAG -640 -1152 EQ17
FLAG -784 -1056 BQ17
FLAG -800 1280 BQ18
FLAG -32 -1232 0
FLAG -48 1712 0
FLAG -96 -1344 +HVF
FLAG -96 1600 -HVF
FLAG -128 -1232 0
FLAG -128 1712 0
DATAFLAG 400 704 "round($*100)/100"
DATAFLAG -464 128 "V(vbem1)-V(vbem2)"
DATAFLAG -384 -496 "V(CQ15)-V(vbem1)"
DATAFLAG 160 -288 "V(BQ9)-V(EQ9)"
DATAFLAG 160 576 "V(EQ10)-V(BQ10)"
DATAFLAG -464 624 ""
DATAFLAG -464 -368 ""
DATAFLAG -944 -656 ""
DATAFLAG -1008 880 ""
DATAFLAG -416 -688 ""
DATAFLAG -2016 -688 ""
DATAFLAG -2016 896 ""
DATAFLAG -1872 -1008 ""
DATAFLAG 1504 128 ""
DATAFLAG -1696 128 ""
DATAFLAG -464 -832 "V(CQ17)-V(EQ19)"
DATAFLAG 352 -592 ""
DATAFLAG -368 960 ""
DATAFLAG 224 960 ""
DATAFLAG -608 0 ""
DATAFLAG -1248 128 ""
DATAFLAG 1328 -448 ""
DATAFLAG 1328 -1344 ""
DATAFLAG 1328 704 ""
DATAFLAG -2096 -96 ""
DATAFLAG -2032 320 ""
DATAFLAG -512 1056 "V(EQ20)-V(CQ18)"
DATAFLAG -384 832 "V(vbem2)-V(CQ16)"
DATAFLAG -2320 128 ""
DATAFLAG 1312 1600 ""
DATAFLAG -1680 -1568 ""
DATAFLAG -1376 1760 ""
DATAFLAG -176 -800 "-Ic(Q15)"
DATAFLAG 320 -240 "-Ie(Q9)"
DATAFLAG -464 -272 "Ic(Q21)"
DATAFLAG -464 496 "-Ic(Q20)"
DATAFLAG -768 -160 ""
DATAFLAG -768 416 ""
DATAFLAG 400 48 ""
DATAFLAG 224 128 ""
DATAFLAG 704 -208 "-Ix(Q3:3)"
DATAFLAG -608 -592 "-Ic(Q19)"
DATAFLAG -624 800 "Ic(Q18)"
DATAFLAG -576 960 "-Ie(Q18)"
DATAFLAG -1792 -1072 "Ic(Q33)"
DATAFLAG -2352 -1040 "Ic(Q35)"
DATAFLAG -2176 -496 "I(D35)"
DATAFLAG -2176 624 "I(D36)"
DATAFLAG -1936 -624 "Ic(Q37)"
DATAFLAG -1936 784 "-Ic(Q38)"
DATAFLAG -2256 1200 "-Ic(Q36)"
DATAFLAG 704 400 "Ix(Q4:3)"
DATAFLAG -208 1024 "Ic(Q16)"
DATAFLAG 304 480 "Ie(Q10)"
DATAFLAG 896 -512 "I(D1)"
DATAFLAG 912 656 "I(D2)"
DATAFLAG 1776 -1792 "-I(Vphv)"
DATAFLAG 1920 -1840 "-I(Vplv)"
DATAFLAG 2064 -1792 "I(vnhv)"
DATAFLAG 2848 -1824 "I(Vnrlv)"
DATAFLAG 2704 -1824 "-I(Vprlv)"
DATAFLAG 2288 -1840 "I(Vnlv)"
DATAFLAG -2288 -1088 "V(POS_DIFF_OUT)-V(CQ35)"
DATAFLAG -2112 -896 "V(CQ35)-V(CQ37)"
DATAFLAG -1920 -896 "V(+rlv)-V(CQ37)"
DATAFLAG -1856 -448 "V(CQ37)-V(EQ37)"
DATAFLAG -1856 656 "V(EQ38)-V(CQ38)"
DATAFLAG -2256 -176 "V(CD35)-V(-rlv)"
DATAFLAG -2256 -368 "V(AD35)-V(CD35)"
DATAFLAG -2256 400 "V(+rlv)-V(CD36)"
DATAFLAG -2256 576 "V(CD36)-V(BQ36)"
DATAFLAG -2096 1136 "-V(CQ36)+V(CQ38)"
DATAFLAG -1952 1136 "-V(-RLV)+V(CQ38)"
DATAFLAG -128 752 "-I(Dz2)"
DATAFLAG -144 1136 "V(CQ16)-V(EQ16)"
DATAFLAG -512 880 "-V(EQ20)"
DATAFLAG -128 -576 "-I(Dz1)"
DATAFLAG -496 -640 "V(EQ19)"
DATAFLAG -112 -928 "V(EQ15)-V(CQ15)"
DATAFLAG -864 -32 "Ix(RVMV:B)"
DATAFLAG -864 -288 "I(R21)"
DATAFLAG -864 512 "I(R22)"
DATAFLAG 336 -368 "V(+hv)-V(CQ13)"
DATAFLAG 816 -272 "V(MID_POS)-V(EQ3)"
DATAFLAG 816 528 "V(EQ4)-V(MID_NEG)"
DATAFLAG 368 592 "V(EQ10)-V(-hv)"
DATAFLAG 528 -208 "V(EQ9)-V(EQ3)"
DATAFLAG 528 464 "V(EQ4)-V(EQ10)"
DATAFLAG 720 912 "V(EQ2)-V(-hv)"
DATAFLAG 544 880 "V(EQ6)-V(-hv)"
DATAFLAG 736 -608 "V(+hv)-V(EQ1)"
DATAFLAG 560 -608 "V(+hv)-V(EQ5)"
DATAFLAG 432 -704 "V(+hv)-V(EQ7)"
DATAFLAG 432 976 "V(EQ8)-V(-hv)"
DATAFLAG -64 -32 "V(CQ11)-V(out)"
DATAFLAG -64 304 "V(out)-V(CQ12)"
DATAFLAG 864 800 "V(MID_NEG)-V(-lv)"
DATAFLAG 832 -368 "V(+lv)-V(MID_POS)"
DATAFLAG -448 -928 ""
DATAFLAG -448 1152 ""
DATAFLAG -128 -1152 "V(+HV)-V(eq15)"
DATAFLAG -128 1360 "V(EQ16)-V(-HV)"
DATAFLAG -560 -960 "-Ic(Q17)"
DATAFLAG -1856 -288 "V(EQ37)-V(-rlv)"
DATAFLAG -1856 496 "-V(EQ38)+V(+rlv)"
DATAFLAG -2384 1344 "V(CQ36)-V(NEG_DIFF_OUT)"
DATAFLAG -2384 1520 "V(NEG_DIFF_OUT)-V(-HV)"
DATAFLAG -2272 -1264 "V(+HV)-V(POS_DIFF_OUT)"
DATAFLAG -2016 -992 "Ic(Q35)-Ic(Q33)"
DATAFLAG -2016 1312 "Ic(Q36)-Ic(Q34)"
DATAFLAG -1776 1216 "-Ic(Q34)"
DATAFLAG -2080 -1360 "I(R31)"
DATAFLAG -2080 1440 "-I(R32)"
DATAFLAG -1024 -1008 "V(+hv)-V(POS_DIFF_OUT)"
DATAFLAG -1088 1232 "-V(-hv)+V(NEG_DIFF_OUT)"
DATAFLAG -1952 1344 ""
DATAFLAG -240 -1344 ""
DATAFLAG -240 1600 ""
DATAFLAG -880 -1136 "I(D9)"
DATAFLAG -912 1344 "I(D10)"
DATAFLAG -752 -1056 ""
DATAFLAG -448 -1232 "V(+hv)-V(EQ17)"
DATAFLAG -448 -1056 "V(EQ17)-V(CQ17)"
DATAFLAG -464 1456 "-V(-hv)+V(EQ18)"
DATAFLAG -464 1280 "-V(EQ18)+V(CQ18)"
SYMBOL npn 288 -736 R0
SYMATTR InstName Q7
SYMATTR Value MJE340
SYMBOL res 336 -592 R0
SYMATTR InstName R9
SYMATTR Value 100
SYMBOL diode -64 -672 R270
WINDOW 0 32 32 VTop 2
WINDOW 3 0 32 VBottom 2
SYMATTR InstName D3
SYMATTR Value D1N4148
SYMBOL npn 176 -416 R0
SYMATTR InstName Q9
SYMATTR Value MJE340
SYMBOL res 608 0 R0
SYMATTR InstName R3
SYMATTR Value 0.15
SYMBOL res 416 -96 R180
WINDOW 0 36 76 Left 2
WINDOW 3 36 40 Left 2
SYMATTR InstName R11
SYMATTR Value 100
SYMBOL res 608 144 R0
SYMATTR InstName R4
SYMATTR Value 0.15
SYMBOL pnp 176 672 M180
WINDOW 0 61 35 Left 2
WINDOW 3 59 69 Left 2
SYMATTR InstName Q10
SYMATTR Value MJE350
SYMBOL pnp 288 1008 M180
WINDOW 0 37 38 Left 2
WINDOW 3 52 73 Left 2
SYMATTR InstName Q8
SYMATTR Value MJE350
SYMBOL diode 0 944 R90
WINDOW 0 0 32 VBottom 2
WINDOW 3 32 32 VTop 2
SYMATTR InstName D4
SYMATTR Value D1N4148
SYMBOL diode 832 720 R270
WINDOW 0 32 32 VTop 2
WINDOW 3 0 32 VBottom 2
SYMATTR InstName D2
SYMATTR Value MBR1645
SYMBOL res 416 464 R180
WINDOW 0 36 76 Left 2
WINDOW 3 36 40 Left 2
SYMATTR InstName R12
SYMATTR Value 100
SYMBOL res 608 720 R0
SYMATTR InstName R2
SYMATTR Value 0.1
SYMBOL res 464 720 R0
SYMATTR InstName R6
SYMATTR Value 0.1
SYMBOL res 464 -560 R0
SYMATTR InstName R5
SYMATTR Value 0.1
SYMBOL res 608 -560 R0
SYMATTR InstName R1
SYMATTR Value 0.1
SYMBOL diode 880 -432 M270
WINDOW 0 32 32 VTop 2
WINDOW 3 0 32 VBottom 2
SYMATTR InstName D1
SYMATTR Value MBR1645
SYMBOL pnp -672 464 M180
SYMATTR InstName Q22
SYMATTR Value MJE350
SYMBOL npn -672 -208 R0
SYMATTR InstName Q21
SYMATTR Value MJE340
SYMBOL res -784 -320 R0
SYMATTR InstName R23
SYMATTR Value 499
SYMBOL res -784 464 R0
SYMATTR InstName R24
SYMATTR Value 499
SYMBOL res -176 -384 R90
WINDOW 0 0 56 VBottom 2
WINDOW 3 32 56 VTop 2
SYMATTR InstName R19
SYMATTR Value 100
SYMBOL res -176 608 R90
WINDOW 0 0 56 VBottom 2
WINDOW 3 32 56 VTop 2
SYMATTR InstName R20
SYMATTR Value 100
SYMBOL pnp -368 -880 M180
WINDOW 0 43 42 Left 2
WINDOW 3 51 82 Left 2
SYMATTR InstName Q15
SYMATTR Value MJE350
SYMBOL npn -368 1104 R0
SYMATTR InstName Q16
SYMATTR Value MJE340
SYMBOL npn -720 832 R0
WINDOW 0 29 51 Left 2
WINDOW 3 -39 -4 Left 2
SYMATTR InstName Q20
SYMATTR Value MMBTA42
SYMBOL res -1616 208 R0
SYMATTR InstName RFB2
SYMATTR Value 1.30k
SYMBOL res -1344 112 R90
WINDOW 0 0 56 VBottom 2
WINDOW 3 32 56 VTop 2
SYMATTR InstName RFB1
SYMATTR Value 35.7k
SYMBOL res -2448 208 R0
SYMATTR InstName RIOF1
SYMATTR Value 35.7k
SYMBOL pnp -704 -608 M180
WINDOW 0 40 32 Left 2
WINDOW 3 51 62 Left 2
SYMATTR InstName Q19
SYMATTR Value MMBTA92
SYMBOL npn -2224 -912 R0
WINDOW 3 -127 -3 Left 2
WINDOW 0 54 48 Left 2
SYMATTR Value MMPQ6700-NPN
SYMATTR InstName Q35
SYMBOL npn -1808 -912 M0
WINDOW 0 50 47 Left 2
WINDOW 3 -138 -6 Left 2
SYMATTR InstName Q33
SYMATTR Value MMPQ6700-NPN
SYMBOL pnp -2224 1168 M180
WINDOW 3 -135 102 Left 2
WINDOW 0 46 73 Left 2
SYMATTR Value MMPQ6700-PNP
SYMATTR InstName Q36
SYMBOL pnp -1808 1168 R180
WINDOW 0 57 72 Left 2
WINDOW 3 -141 104 Left 2
SYMATTR InstName Q34
SYMATTR Value MMPQ6700-PNP
SYMBOL cap -608 -464 R90
WINDOW 0 0 32 VBottom 2
WINDOW 3 32 32 VTop 2
SYMATTR InstName CC5
SYMATTR Value {CComp4}
SYMBOL cap -624 688 R90
WINDOW 0 0 32 VBottom 2
WINDOW 3 32 32 VTop 2
SYMATTR InstName CC6
SYMATTR Value {CComp4}
SYMBOL res -320 -1200 R0
SYMATTR InstName R17
SYMATTR Value 140
SYMBOL res -320 1312 R0
SYMATTR InstName R18
SYMATTR Value 140
SYMBOL 2SC5200 448 -608 R0
WINDOW 0 26 14 Left 2
WINDOW 3 -57 -8 Left 2
SYMATTR InstName Q5
SYMBOL 2SC5200 592 -608 R0
SYMATTR InstName Q1
SYMBOL 2SC5200 592 -288 R0
SYMATTR InstName Q3
SYMBOL 2SA1943 592 544 M180
SYMATTR InstName Q4
SYMBOL 2SA1943 448 896 M180
WINDOW 0 40 0 Left 2
WINDOW 3 -70 30 Left 2
SYMATTR InstName Q6
SYMBOL 2SA1943 592 896 M180
WINDOW 3 35 16 Left 2
SYMATTR InstName Q2
SYMBOL res -2160 -640 R0
SYMATTR InstName R43
SYMATTR Value 560
SYMBOL npn -2080 -512 R0
WINDOW 0 47 25 Left 2
WINDOW 3 40 58 Left 2
SYMATTR InstName Q37
SYMATTR Value MMBTA42
SYMBOL res -2032 -368 R0
SYMATTR InstName R35
SYMATTR Value 1.58k
SYMBOL pnp -2080 688 M180
WINDOW 0 66 39 Left 2
WINDOW 3 58 68 Left 2
SYMATTR InstName Q38
SYMATTR Value MMBTA92
SYMBOL res -2032 416 R0
SYMATTR InstName R36
SYMATTR Value 1.62k
SYMBOL res -2160 656 R0
SYMATTR InstName R44
SYMATTR Value 560
SYMBOL res 1600 208 R0
SYMATTR InstName RL
SYMATTR Value {RL}
SYMBOL cap 208 1056 R0
SYMATTR InstName CC4
SYMATTR Value {CComp3P}
SYMBOL cap 208 -896 R0
SYMATTR InstName CC3
SYMATTR Value {CComp3N}
SYMBOL voltage -2912 176 R0
WINDOW 3 -263 52 Left 2
WINDOW 123 -109 95 Left 2
WINDOW 39 0 0 Left 2
SYMATTR Value SINE(0 {VPin} {freq})
SYMATTR Value2 AC {VPin}
SYMATTR InstName VG
SYMBOL cap 1136 -1328 R0
SYMATTR InstName CF5
SYMATTR Value 100n
SYMBOL zener -2128 -176 R180
WINDOW 0 -53 70 Left 2
WINDOW 3 -131 -1 Left 2
SYMATTR InstName DZ31
SYMATTR Value DI_BZX84C5V1
SYMATTR Prefix X
SYMBOL zener -2128 576 R180
WINDOW 0 -64 58 Left 2
WINDOW 3 -117 -6 Left 2
SYMATTR InstName DZ32
SYMATTR Value DI_BZX84C5V1
SYMATTR Prefix X
SYMBOL cap -1376 16 R90
WINDOW 0 0 32 VBottom 2
WINDOW 3 32 32 VTop 2
SYMATTR InstName CC7
SYMATTR Value {CComp5}
SYMBOL potentiometer_standard -752 144 R180
WINDOW 3 -36 -77 Left 2
WINDOW 0 -68 50 Left 2
WINDOW 38 50 -51 Left 2
SYMATTR Value Rtot=2k wiper=0.78
SYMATTR InstName RVMV
SYMATTR SpiceLine ""
SYMBOL diode -2160 384 R0
SYMATTR InstName D36
SYMATTR Value D1N4148
SYMBOL diode -2160 -384 R0
SYMATTR InstName D35
SYMATTR Value D1N4148
SYMBOL pnp 192 336 R180
SYMATTR InstName Q12
SYMATTR Value MMBTA92
SYMBOL npn 192 -80 M0
SYMATTR InstName Q11
SYMATTR Value MMBTA42
SYMBOL diode 112 -208 R0
SYMATTR InstName D5
SYMATTR Value D1N4148
SYMBOL res 544 -48 R90
WINDOW 0 0 56 VBottom 2
WINDOW 3 32 56 VTop 2
SYMATTR InstName R7
SYMATTR Value 68
SYMBOL res 528 272 R90
WINDOW 0 0 56 VBottom 2
WINDOW 3 32 56 VTop 2
SYMATTR InstName R8
SYMATTR Value 68
SYMBOL diode 112 400 R0
SYMATTR InstName D6
SYMATTR Value D1N4148
SYMBOL res 256 -160 R0
SYMATTR InstName R13
SYMATTR Value 22k
SYMBOL res 256 304 R0
SYMATTR InstName R14
SYMATTR Value 22k
SYMBOL polcap 1248 -1328 R0
SYMATTR InstName CF1
SYMATTR Value 470µ
SYMBOL cap 1136 -432 R0
SYMATTR InstName CF7
SYMATTR Value 100n
SYMBOL polcap 1248 -432 R0
SYMATTR InstName CF3
SYMATTR Value 470µ
SYMBOL cap 1168 720 R0
SYMATTR InstName CF8
SYMATTR Value 100n
SYMBOL polcap 1280 720 R0
SYMATTR InstName CF4
SYMATTR Value 470µ
SYMBOL cap 1168 1616 R0
SYMATTR InstName CF6
SYMATTR Value 100n
SYMBOL polcap 1280 1616 R0
SYMATTR InstName CF2
SYMATTR Value 470µ
SYMBOL cap -1904 -1552 R0
SYMATTR InstName CF33
SYMATTR Value 100n
SYMBOL polcap -1792 -1552 R0
SYMATTR InstName CF31
SYMATTR Value 220µ
SYMBOL cap -1600 1776 R0
SYMATTR InstName CF34
SYMATTR Value 100n
SYMBOL polcap -1488 1776 R0
SYMATTR InstName CF32
SYMATTR Value 220µ
SYMBOL polcap -1616 432 R0
SYMATTR InstName CAF
SYMATTR Value 1m
SYMBOL diode -1488 384 R0
SYMATTR InstName D33
SYMATTR Value D1N4148
SYMBOL diode -1488 480 R0
SYMATTR InstName D34
SYMATTR Value D1N4148
SYMBOL diode -1360 544 M180
WINDOW 0 24 64 Left 2
WINDOW 3 24 0 Left 2
SYMATTR InstName D32
SYMATTR Value D1N4148
SYMBOL diode -1360 448 M180
WINDOW 0 24 64 Left 2
WINDOW 3 24 0 Left 2
SYMATTR InstName D31
SYMATTR Value D1N4148
SYMBOL polcap -2576 112 R90
WINDOW 0 0 32 VBottom 2
WINDOW 3 32 32 VTop 2
SYMATTR InstName CAI
SYMATTR Value 47µ
SYMBOL res 336 720 R0
SYMATTR InstName R10
SYMATTR Value 100
SYMBOL cap -992 96 R0
SYMATTR InstName CC2
SYMATTR Value {CComp2}
SYMBOL voltage 1824 -1360 R0
SYMATTR InstName VPHV
SYMATTR Value {PHV}
SYMBOL voltage 1952 -1360 R0
SYMATTR InstName VPLV
SYMATTR Value {PLV}
SYMBOL voltage 2112 -1360 R0
SYMATTR InstName VNHV
SYMATTR Value {NHV}
SYMBOL voltage 2240 -1360 R0
SYMATTR InstName VNLV
SYMATTR Value {NLV}
SYMBOL voltage 2656 -1360 R0
SYMATTR InstName VPRLV
SYMATTR Value {PRLV}
SYMBOL voltage 2800 -1360 R0
SYMATTR InstName VNRLV
SYMATTR Value {NRLV}
SYMBOL voltage 2240 -1488 R0
WINDOW 123 0 0 Left 0
WINDOW 39 0 0 Left 0
WINDOW 0 -94 105 Left 2
WINDOW 3 -94 77 Invisible 2
SYMATTR InstName Vripple4
SYMATTR Value PULSE({ripple_amp_L} 0 0 1m 9m 0 10m)
SYMBOL voltage 2112 -1488 R0
WINDOW 123 0 0 Left 0
WINDOW 39 0 0 Left 0
WINDOW 0 -93 106 Left 2
WINDOW 3 -93 78 Invisible 2
SYMATTR InstName Vripple3
SYMATTR Value PULSE({ripple_amp_H} 0 0 1m 9m 0 10m)
SYMBOL voltage 1824 -1376 R180
WINDOW 123 0 0 Left 0
WINDOW 39 0 0 Left 0
WINDOW 0 1 4 Left 2
WINDOW 3 1 -24 Invisible 2
SYMATTR InstName Vripple1
SYMATTR Value PULSE({ripple_amp_H} 0 0 1m 9m 0 10m)
SYMBOL voltage 1952 -1376 R180
WINDOW 123 0 0 Left 0
WINDOW 39 0 0 Left 0
WINDOW 0 0 6 Left 2
WINDOW 3 0 -22 Invisible 2
SYMATTR InstName Vripple2
SYMATTR Value PULSE({ripple_amp_H} 0 0 1m 9m 0 10m)
SYMBOL zener -288 -512 R180
WINDOW 0 24 64 Left 2
WINDOW 3 -84 11 Left 2
SYMATTR InstName DZ1
SYMATTR Value D1N4371
SYMBOL zener -288 816 R180
WINDOW 0 24 64 Left 2
WINDOW 3 -84 11 Left 2
SYMATTR InstName DZ2
SYMATTR Value D1N4371
SYMBOL cap -112 96 R0
WINDOW 3 24 66 Left 2
SYMATTR Value {CComp1}
SYMATTR InstName CC1
SYMBOL npn -2096 -1136 M0
WINDOW 0 69 14 Left 2
WINDOW 3 44 45 Left 2
SYMATTR InstName Q31
SYMATTR Value MMBTA42
SYMBOL res -2176 -1328 R0
SYMATTR InstName R31
SYMATTR Value 15.8k
SYMBOL pnp -2096 1392 R180
SYMATTR InstName Q32
SYMATTR Value MMBTA92
SYMBOL res -2144 1584 R180
WINDOW 0 36 76 Left 2
WINDOW 3 36 40 Left 2
SYMATTR InstName R32
SYMATTR Value 15.8k
SYMBOL zener -624 -784 R180
WINDOW 0 -49 36 Left 2
WINDOW 3 -131 -1 Left 2
SYMATTR InstName DZ3
SYMATTR Value DI_BZX84C20
SYMATTR Prefix X
SYMBOL zener -640 1088 R180
WINDOW 0 -53 43 Left 2
WINDOW 3 -131 -1 Left 2
SYMATTR InstName DZ4
SYMATTR Value DI_BZX84C20
SYMATTR Prefix X
SYMBOL pnp -704 -1008 M180
WINDOW 0 40 32 Left 2
WINDOW 3 66 96 Left 2
SYMATTR InstName Q17
SYMATTR Value MMBTA92
SYMBOL diode -800 -1264 R0
SYMATTR InstName D7
SYMATTR Value D1N4148
SYMBOL diode -800 -1168 R0
SYMATTR InstName D9
SYMATTR Value D1N4148
SYMBOL res -800 -1024 R0
SYMATTR InstName R25
SYMATTR Value 27k
SYMBOL res -656 -1280 R0
SYMATTR InstName R21
SYMATTR Value 196
SYMBOL npn -720 1232 R0
WINDOW 0 29 51 Left 2
WINDOW 3 74 -6 Left 2
SYMATTR InstName Q18
SYMATTR Value MMBTA42
SYMBOL diode -816 1360 R0
SYMATTR InstName D8
SYMATTR Value D1N4148
SYMBOL diode -816 1456 R0
SYMATTR InstName D10
SYMATTR Value D1N4148
SYMBOL res -816 1136 R0
SYMATTR InstName R26
SYMATTR Value 27k
SYMBOL res -672 1392 R0
SYMATTR InstName R22
SYMATTR Value 165
SYMBOL res 176 -1360 R90
WINDOW 0 0 56 VBottom 2
WINDOW 3 32 56 VTop 2
SYMATTR InstName R15
SYMATTR Value 15
SYMBOL polcap -48 -1312 R0
SYMATTR InstName CF9
SYMATTR Value 220µ
SYMBOL res 160 1584 R90
WINDOW 0 0 56 VBottom 2
WINDOW 3 32 56 VTop 2
SYMATTR InstName R16
SYMATTR Value 15
SYMBOL polcap -64 1632 R0
SYMATTR InstName CF10
SYMATTR Value 220µ
SYMBOL cap -144 -1312 R0
SYMATTR InstName CF11
SYMATTR Value 100n
SYMBOL cap -144 1632 R0
SYMATTR InstName CF12
SYMATTR Value 100n
TEXT 2144 -968 Left 2 !.tran 0 30m 0m 0.0001m
TEXT 2136 -800 Left 2 !.param freq 10k
TEXT 2144 -936 Left 2 ;.op
TEXT 2136 -632 Left 2 !.fourier {freq} 30 -1 V(out)
TEXT 2656 -984 Left 2 !.lib 2SA1302.lib
TEXT 2656 -952 Left 2 !.lib 2SC3281.lib
TEXT 2656 -728 Left 2 !.lib MBR1645.lib
TEXT 2656 -920 Left 2 !.lib MJE340.lib
TEXT 2656 -888 Left 2 !.lib MJE350.lib
TEXT 2656 -760 Left 2 !.lib D1N4148.lib
TEXT 2144 -896 Left 2 ;.ac dec 10000 0.01 10G
TEXT 2136 -768 Left 2 !.param VPin={VPinABSMAX30V}
TEXT 2656 -664 Left 2 !.lib BZX84C5V1.lib
TEXT 2656 -856 Left 2 !.lib MMBTA42.lib
TEXT 2656 -824 Left 2 !.lib MMBTA92.lib
TEXT 2656 -792 Left 2 !.lib MMPQ6700.lib
TEXT 2136 -600 Left 2 !.option plotwinsize=0
TEXT 2136 -504 Left 2 !.meas TRAN Vrms RMS V(out)
TEXT 2136 -472 Left 2 !.meas TRAN Pout PARAM (Vrms*Vrms/{RL})
TEXT 2136 -568 Left 2 !.option numdgt=9
TEXT 2136 -536 Left 2 !.meas TRAN Vout_max MAX V(out)
TEXT 2136 -736 Left 2 !.param RL=8
TEXT 2136 -392 Left 2 !.meas TRAN PinPHV AVG (V(+HV)*(-I(VPHV)) + V(+RHV)*(-I(VPRHV)))\n.meas TRAN PinPLV AVG (V(+LV)*(-I(VPLV)) + V(+RLV)*(-I(VPRLV)))\n.meas TRAN PinNHV AVG (V(-HV)*(-I(VNHV)) + V(-RHV)*(-I(VNRHV)))\n.meas TRAN PinNLV AVG (V(-LV)*(-I(VNLV)) + V(-RLV)*(-I(VNRLV)))\n.meas TRAN Pin param (PinPHV + PinPLV + PinNHV + PinNLV )\n.meas TRAN Eff param (Pout / Pin)
TEXT -1040 -416 Left 3 ;Multiplicador de VBE
TEXT 432 -104 Left 4 ;Protección
TEXT 528 -2008 Left 2 !.param CComp1=10n
TEXT 528 -1944 Left 2 !.param CComp3N=68p
TEXT 528 -1880 Left 2 !.param CComp4=68p
TEXT 568 -2064 Left 2 ;Compensación
TEXT 528 -1912 Left 2 !.param CComp3P=68p
TEXT 528 -1848 Left 2 !.param CComp5=1.2p
TEXT 1864 -1976 Left 2 !.param PHV=+{HV} PLV=+{LV} NHV=-{HV}
TEXT 1728 -1144 Left 2 !.param HV=LINELEVEL*SQRT(2)*HTRAFOEFF - DIODESDROPH
TEXT 1728 -1112 Left 2 !.param LV=LINELEVEL*SQRT(2)*LTRAFOEFF - DIODESDROPL
TEXT 1168 -1696 Left 2 !.param RLV=9
TEXT 1168 -1632 Left 2 !.param ripple_amp_H=2.21
TEXT 1864 -2000 Left 2 !.param NLV=-{LV} PRLV={RLV} NRLV=-{RLV}
TEXT 1168 -1600 Left 2 !.param ripple_amp_L=1.1
TEXT 1168 -1792 Left 2 !.param HTRAFOEFF=36
TEXT 1168 -1760 Left 2 !.param LTRAFOEFF=12
TEXT 1168 -1728 Left 2 !.param LINELEVEL={ABSMINLEVEL}
TEXT 1176 -2024 Left 3 ;Tensión de línea(220V):\n180V a 240V => 0.8 a 1.1
TEXT 1168 -1568 Left 2 !.param DIODESDROPH=1.1
TEXT 1168 -1944 Left 2 !.param MAXLINELEVEL=1.1
TEXT 1168 -1880 Left 2 !.param MINLINELEVEL=0.8
TEXT 2656 -696 Left 2 !.lib D1N4371.lib
TEXT 528 -1976 Left 2 !.param CComp2=6.8n
TEXT 1728 -960 Left 2 !.param VPin1W=141m
TEXT 1728 -736 Left 2 !.param VPinABSMAX=1.0885
TEXT 1728 -928 Left 2 !.param VPin5W=314.5m
TEXT 1728 -896 Left 2 !.param VPin10W=444.5m
TEXT 1728 -832 Left 2 !.param VPin45W=942.7m
TEXT 1728 -800 Left 2 !.param VPin50W=993.71m
TEXT 1728 -864 Left 2 !.param VPin30W=769.66m
TEXT 1728 -992 Left 2 !.param VPin0.5W=99.4m
TEXT 1728 -768 Left 2 !.param VPinMAX={VPin50W}
TEXT 1168 -1912 Left 2 !.param NORMALLINELEVEL=1
TEXT 1168 -1536 Left 2 !.param DIODESDROPL=1.2
TEXT 2136 -168 Left 2 !.meas TRAN VCEQ1_max MAX V(+HV, EQ1)
TEXT 2136 -136 Left 2 !.meas TRAN VCEQ2_max MAX -V(-HV, EQ2)
TEXT 2136 -40 Left 2 !.meas TRAN VCEQ5_max MAX V(+HV, EQ5)
TEXT 2136 -8 Left 2 !.meas TRAN VCEQ6_max MAX -V(-HV, EQ6)
TEXT 2136 -104 Left 2 !.meas TRAN VCEQ3_max MAX V(MID_POS, EQ3)