**************************************
*      Model Generated by MODPEX     *
*Copyright(c) Symmetry Design Systems*
*         All Rights Reserved        *
*    UNPUBLISHED LICENSED SOFTWARE   *
*   Contains Proprietary Information *
*      Which is The Property of      *
*     SYMMETRY OR ITS LICENSORS      *
*Commercial Use or Resale Restricted *
*   by Symmetry License Agreement    *
**************************************
* Model generated on Aug 21, 00
* MODEL FORMAT: PSpice
.MODEL D1n5817 d
+IS=2.93092e-05 RS=0.0524736 N=1.33711 EG=0.1
+XTI=0.325839 BV=20 IBV=0.001 CJO=2.01549e-10
+VJ=8.0542 M=0.9 FC=0.5 TT=1.47806e-08
+KF=0 AF=1
