.MODEL TIP42C PNP(
+     IS=5.65618e-10
+     BF=120.073
+     NF=1.24004
+     VAF=90.6071
+     IKF=1.46498
+     ISE=6.98929e-14
+     NE=4
+     BR=2.83268
+     NR=1.30331
+     VAR=27.1221
+     IKR=10
+     ISC=6.98934e-14
+     NC=3.78125
+     RB=4.71382
+     IRB=0.234602
+     RBM=0.12691
+     RE=0.000666374
+     RC=0.0927424
+     XTB=3.21145
+     XTI=1
+     EG=1.05
+     CJE=1.93221e-10
+     VJE=0.4
+     MJE=0.259369
+     TF=9.99163e-09
+     XTF=4.41941
+     VTF=6.53488
+     ITF=0.001
+     CJC=1.0962e-10
+     VJC=0.731968
+     MJC=0.23
+     XCJC=0.799902
+     FC=0.799995
+     CJS=0
+     VJS=0.75
+     MJS=0.5
+     TR=1e-07
+     PTF=0
+     KF=0
+     AF=1 )
* Model generated on Dec 22, 2003
* Model format: SPICE3
