.MODEL BC548C NPN (
+     IS=1.95E-14
+     ISE=1.31f
+     ISC=1.00E-13
+     XTI=3.00
+     BF=4.66E2
+     BR=2.42
+     IKF=1.80E-1
+     IKR=1.00
+     XTB=1.5
+     VAF=9.17E1
+     VAR=2.47E1
+     VJE=6.32E-1
+     VJC=3.39E-1
+     RE=1.00
+     RC=1.73
+     RB=2.65E1
+     RBM=1.00E1
+     IRB=1.00E1
+     CJE=1.33E-11
+     CJC=5.17p
+     FC=9.00E-1
+     NF=9.93E-1
+     NR=1.20
+     NE=1.32
+     NC=2.00
+     MJE=3.26E-1
+     MJC=3.19E-1
+     TF=6.52E-10
+     TR=0
+     ITF=1.03
+     VTF=1.65
+     XTF=1.00E2
+     EG=1.11
+     VCEO=30
+     ICRATING=100m
+     MFG=PHILIPS )
